* DIODES INCORPORATED AND ITS AFFILIATED COMPANIES AND SUBSIDIARIES (COLLECTIVELY, "DIODES") 
* PROVIDE THESE SPICE MODELS AND DATA (COLLECTIVELY, THE "SM DATA") "AS IS" AND WITHOUT ANY 
* REPRESENTATIONS OR WARRANTIES, EXPRESS OR IMPLIED, INCLUDING ANY WARRANTY OF MERCHANTABILITY 
* OR FITNESS FOR A PARTICULAR PURPOSE, ANY WARRANTY ARISING FROM COURSE OF DEALING OR COURSE OF 
* PERFORMANCE, OR ANY WARRANTY THAT ACCESS TO OR OPERATION OF THE SM DATA WILL BE UNINTERRUPTED, 
* OR THAT THE SM DATA OR ANY SIMULATION USING THE SM DATA WILL BE ERROR FREE. TO THE MAXIMUM 
* EXTENT PERMITTED BY LAW, IN NO EVENT WILL DIODES BE LIABLE FOR ANY DIRECT OR INDIRECT, 
* SPECIAL, INCIDENTAL, PUNITIVE OR CONSEQUENTIAL DAMAGES ARISING OUT OF OR IN CONNECTION WITH 
* THE PRODUCTION OR USE OF SM DATA, HOWEVER CAUSED AND UNDER WHATEVER CAUSE OF ACTION OR THEORY 
* OF LIABILITY BROUGHT (INCLUDING, WITHOUT LIMITATION, UNDER ANY CONTRACT, NEGLIGENCE OR OTHER 
* TORT THEORY OF LIABILITY), EVEN IF DIODES HAS BEEN ADVISED OF THE POSSIBILITY OF SUCH DAMAGES, 
* AND DIODES' TOTAL LIABILITY (WHETHER IN CONTRACT, TORT OR OTHERWISE) WITH REGARD TO THE SM 
* DATA WILL NOT, IN THE AGGREGATE, EXCEED ANY SUMS PAID BY YOU TO DIODES FOR THE SM DATA.



*---------- DMC2991UDJ Spice Model ----------

*--------------------NMOS--------------------
.SUBCKT DMC2991UDJ_N 10 20 30 
* TERMINALS : D G S
* MODEL FORMAT : SPICE3
M1 1 2 3 3 NMOS L = 1E-006 W = 1E-006 
RD 10 1 0.21 
RS 30 3 0.0001 
RG 20 2 887.6 
CGS 2 3 1.466E-011 
EGD 12 0 2 1 1 
VFB 14 0 0 
FFB 2 1 VFB 1 
CGD 13 14 5.1E-011 
R1 13 0 1 
D1 12 13 DLIM 
DDG 15 14 DCGD 
R2 12 15 1 
D2 15 0 DLIM 
DSD 3 10 DSUB 
.MODEL NMOS NMOS LEVEL = 3 VMAX = 1E+005 ETA = 0 VTO = 0.8806 
+ TOX = 1E-007 NSUB = 1E+015 KP = 2.15 U0 = 400 KAPPA = 0.2 IS = 0 
.MODEL DCGD D CJO = 7.719E-012 VJ = 0.785 M = 0.35 
.MODEL DSUB D IS = 3.407E-009 N = 1.58 RS = 0.2324 BV = 25.05 
+ CJO = 3.376E-012 VJ = 0.9 M = 0.3 TT = 8.81E-009 
.MODEL DLIM D IS = 0.0001 
.ENDS DMC2991UDJ_N

*--------------------PMOS--------------------
.SUBCKT DMC2991UDJ_P 10 20 30 
* TERMINALS : D  G  S
* MODLE FORMAT : SPICE3
M1 1 2 3 3 PMOS L = 1E-006 W = 1E-006 
RD 10 1 0.75 
RS 30 3 0.001 
RG 20 2 3.36 
CGS 2 3 1.61E-011 
EGD 12 30 2 1 1 
VFB 14 30 0 
FFB 2 1 VFB 1 
CGD 13 14 4.44E-011 
R1 13 30 1 
D1 13 12 DLIM 
DDG 14 15 DCGD 
R2 12 15 1 
D2 30 15 DLIM 
DSD 10 3 DSUB 
.MODEL PMOS PMOS LEVEL = 3 U0 = 200 VMAX = 1E+005 ETA = 0 VTO = -0.67 
+ TOX = 1E-007 NSUB = 1E+015 KP = 1.03 KAPPA = 0.2 IS = 0 
.MODEL DCGD D CJO = 1.813E-012 VJ = 0.8 M = 0.35 
.MODEL DSUB D IS = 1E-008 N = 1.329 RS = 1.273 BV = 29.92 
+ CJO = 8.821E-012 VJ = 0.6499 M = 0.3 
.MODEL DLIM D IS = 0.0001
.ENDS DMC2991UDJ_P
